7ZUB_Lig
 OpenBabel12232409183D

 43 45  0  0  0  0  0  0  0  0999 V2000
    2.7988   -2.9154   13.1780 C   0  0  0  0  0  0  0  0  0  0  0  0
    3.7641   -3.3257   12.2822 O   0  0  0  0  0  0  0  0  0  0  0  0
    4.0239   -2.7497   11.0801 C   0  0  0  0  0  0  0  0  0  0  0  0
    5.0490   -3.3048   10.2861 C   0  0  0  0  0  0  0  0  0  0  0  0
    5.3118   -2.7151    9.0534 C   0  0  0  0  0  0  0  0  0  0  0  0
    4.6167   -1.6344    8.6007 C   0  0  0  0  0  0  0  0  0  0  0  0
    3.5997   -1.0502    9.3471 C   0  0  0  0  0  0  0  0  0  0  0  0
    3.3009   -1.6160   10.6016 C   0  0  0  0  0  0  0  0  0  0  0  0
    5.0699   -1.2703    7.3881 N   0  0  0  0  0  0  0  0  0  0  0  0
    6.0580   -2.1689    7.1370 C   0  0  0  0  0  0  0  0  0  0  0  0
    6.2262   -3.0631    8.1391 N   0  0  0  0  0  0  0  0  0  0  0  0
    7.0587   -2.1843    5.6421 S   0  0  3  0  0  0  0  0  0  0  0  0
    5.9685   -1.5158    4.7879 O   0  0  0  0  0  0  0  0  0  0  0  0
    7.9087   -0.6019    6.0045 C   0  0  0  0  0  0  0  0  0  0  0  0
    8.8677   -0.7740    7.1598 C   0  0  0  0  0  0  0  0  0  0  0  0
    9.8327   -1.7161    7.0267 N   0  0  0  0  0  0  0  0  0  0  0  0
   10.7474   -1.9677    7.9892 C   0  0  0  0  0  0  0  0  0  0  0  0
   10.7438   -1.2495    9.1932 C   0  0  0  0  0  0  0  0  0  0  0  0
   11.8061   -1.6078   10.2024 C   0  0  0  0  0  0  0  0  0  0  0  0
    9.7495   -0.2394    9.3829 C   0  0  0  0  0  0  0  0  0  0  0  0
    9.6306    0.5386   10.5001 O   0  0  0  0  0  0  0  0  0  0  0  0
   10.3716    0.5841   11.6600 C   0  0  0  0  0  0  0  0  0  0  0  0
    8.8042   -0.0057    8.3490 C   0  0  0  0  0  0  0  0  0  0  0  0
    7.7406    1.0604    8.5138 C   0  0  0  0  0  0  0  0  0  0  0  0
    2.8224   -3.5802   14.0657 H   0  0  0  0  0  0  0  0  0  0  0  0
    1.7916   -2.9805   12.7137 H   0  0  0  0  0  0  0  0  0  0  0  0
    3.0004   -1.8744   13.5093 H   0  0  0  0  0  0  0  0  0  0  0  0
    5.6151   -4.1643   10.6224 H   0  0  0  0  0  0  0  0  0  0  0  0
    3.0560   -0.1908    8.9770 H   0  0  0  0  0  0  0  0  0  0  0  0
    2.5110   -1.1702   11.1905 H   0  0  0  0  0  0  0  0  0  0  0  0
    6.9151   -3.8462    8.1874 H   0  0  0  0  0  0  0  0  0  0  0  0
    7.1606    0.1981    6.1716 H   0  0  0  0  0  0  0  0  0  0  0  0
    8.4971   -0.3151    5.1076 H   0  0  0  0  0  0  0  0  0  0  0  0
   11.4844   -2.7395    7.8066 H   0  0  0  0  0  0  0  0  0  0  0  0
   12.4669   -2.4226    9.8365 H   0  0  0  0  0  0  0  0  0  0  0  0
   11.3430   -1.9808   11.1362 H   0  0  0  0  0  0  0  0  0  0  0  0
   12.4644   -0.7398   10.3984 H   0  0  0  0  0  0  0  0  0  0  0  0
    9.9415    1.3659   12.3188 H   0  0  0  0  0  0  0  0  0  0  0  0
   11.4176    0.8791   11.4467 H   0  0  0  0  0  0  0  0  0  0  0  0
   10.3043   -0.3753   12.2086 H   0  0  0  0  0  0  0  0  0  0  0  0
    7.7958    1.5965    9.4820 H   0  0  0  0  0  0  0  0  0  0  0  0
    6.7337    0.6007    8.4560 H   0  0  0  0  0  0  0  0  0  0  0  0
    7.8481    1.8221    7.7132 H   0  0  0  0  0  0  0  0  0  0  0  0
  1  2  1  0  0  0  0
  1 25  1  0  0  0  0
  1 26  1  0  0  0  0
  1 27  1  0  0  0  0
  2  3  1  0  0  0  0
  3  4  2  0  0  0  0
  3  8  1  0  0  0  0
  4  5  1  0  0  0  0
  4 28  1  0  0  0  0
  5  6  2  0  0  0  0
  5 11  1  0  0  0  0
  6  7  1  0  0  0  0
  6  9  1  0  0  0  0
  7  8  2  0  0  0  0
  7 29  1  0  0  0  0
  8 30  1  0  0  0  0
  9 10  2  0  0  0  0
 10 11  1  0  0  0  0
 10 12  1  0  0  0  0
 11 31  1  0  0  0  0
 12 13  2  0  0  0  0
 12 14  1  0  0  0  0
 14 15  1  0  0  0  0
 14 32  1  0  0  0  0
 14 33  1  0  0  0  0
 15 16  2  0  0  0  0
 15 23  1  0  0  0  0
 16 17  1  0  0  0  0
 17 18  2  0  0  0  0
 17 34  1  0  0  0  0
 18 19  1  0  0  0  0
 18 20  1  0  0  0  0
 19 35  1  0  0  0  0
 19 36  1  0  0  0  0
 19 37  1  0  0  0  0
 20 21  1  0  0  0  0
 20 23  2  0  0  0  0
 21 22  1  0  0  0  0
 22 38  1  0  0  0  0
 22 39  1  0  0  0  0
 22 40  1  0  0  0  0
 23 24  1  0  0  0  0
 24 41  1  0  0  0  0
 24 42  1  0  0  0  0
 24 43  1  0  0  0  0
M  END
>  <Energy>
422.189

$$$$
